Version 4
SHEET 1 880 692
WIRE -736 -496 -784 -496
WIRE -608 -496 -656 -496
WIRE 256 -416 80 -416
WIRE 464 -416 256 -416
WIRE -1136 -336 -1136 -368
WIRE -992 -336 -992 -368
WIRE 80 -336 80 -416
WIRE 80 -336 48 -336
WIRE 224 -336 128 -336
WIRE 416 -336 224 -336
WIRE 464 -336 464 -416
WIRE 496 -336 464 -336
WIRE 128 -320 128 -336
WIRE 416 -320 416 -336
WIRE 48 -288 48 -336
WIRE 80 -288 48 -288
WIRE 496 -288 496 -336
WIRE 496 -288 464 -288
WIRE 208 -256 208 -288
WIRE 256 -256 256 -288
WIRE 256 -256 208 -256
WIRE 80 -240 16 -240
WIRE 208 -240 208 -256
WIRE 208 -240 80 -240
WIRE 304 -240 304 -288
WIRE 464 -240 304 -240
WIRE 528 -240 464 -240
WIRE 272 -32 112 -32
WIRE 432 -32 272 -32
WIRE 112 0 112 -32
WIRE 432 0 432 -32
WIRE -864 16 -1024 16
WIRE -704 16 -864 16
WIRE 112 16 64 16
WIRE 208 16 160 16
WIRE 464 16 432 16
WIRE 64 48 64 16
WIRE 112 48 64 48
WIRE 464 48 464 16
WIRE 464 48 432 48
WIRE -1024 64 -1024 16
WIRE -976 64 -1024 64
WIRE -704 64 -704 16
WIRE -704 64 -768 64
WIRE -880 80 -928 80
WIRE -816 80 -880 80
WIRE 384 80 320 80
WIRE -1024 112 -1024 64
WIRE -976 112 -1024 112
WIRE -704 112 -704 64
WIRE -704 112 -768 112
WIRE 96 160 0 160
WIRE 112 160 112 96
WIRE 112 160 96 160
WIRE 320 160 320 80
WIRE 320 160 112 160
WIRE 208 176 208 16
WIRE 432 176 432 96
WIRE 432 176 208 176
WIRE 464 176 432 176
WIRE 592 176 464 176
WIRE -976 192 -976 160
WIRE -880 192 -880 80
WIRE -880 192 -976 192
WIRE -768 192 -768 160
WIRE -704 192 -768 192
WIRE -672 192 -704 192
WIRE 112 192 112 160
WIRE 432 192 432 176
WIRE 208 208 208 176
WIRE 208 208 160 208
WIRE -976 224 -976 192
WIRE -768 224 -768 192
WIRE -48 240 -48 160
WIRE 112 240 48 240
WIRE 480 240 432 240
WIRE 640 240 640 176
WIRE -944 272 -976 272
WIRE -768 272 -816 272
WIRE 48 272 48 240
WIRE 112 272 48 272
WIRE 320 272 320 160
WIRE 384 272 320 272
WIRE 480 272 480 240
WIRE 480 272 432 272
WIRE 112 320 112 288
WIRE 272 320 112 320
WIRE 432 320 432 288
WIRE 432 320 272 320
WIRE -976 336 -976 320
WIRE -880 336 -976 336
WIRE -768 336 -768 320
WIRE -768 336 -880 336
WIRE 272 336 272 320
WIRE -880 352 -880 336
WIRE -944 448 -944 272
WIRE -880 448 -880 432
WIRE -880 448 -944 448
WIRE -816 448 -816 272
WIRE -816 448 -880 448
WIRE -880 496 -880 448
WIRE -848 544 -880 544
WIRE -928 576 -1008 576
WIRE -848 576 -848 544
WIRE -848 576 -880 576
WIRE -880 624 -880 592
FLAG 272 336 0
FLAG -80 112 WL
IOPIN -80 112 In
FLAG 608 128 WL
IOPIN 608 128 In
FLAG -96 160 BLB
IOPIN -96 160 In
FLAG 688 176 BL
IOPIN 688 176 In
FLAG -1888 -256 WL
IOPIN -1888 -256 In
FLAG -1888 -176 0
FLAG -1984 -448 0
FLAG -1984 -528 Vdd
IOPIN -1984 -528 In
FLAG 272 -32 Vdd
IOPIN 272 -32 In
FLAG -48 240 0
FLAG 640 240 0
FLAG 528 -240 BL
IOPIN 528 -240 In
FLAG 80 -176 0
FLAG 464 -176 0
FLAG 224 -336 PCB
IOPIN 224 -336 In
FLAG 16 -240 BLB
IOPIN 16 -240 In
FLAG -1136 -288 BL
IOPIN -1136 -288 In
FLAG -1184 -304 W
IOPIN -1184 -304 In
FLAG -784 -496 0
FLAG -608 -496 DATA
IOPIN -608 -496 In
FLAG -1136 -384 DATA
IOPIN -1136 -384 In
FLAG 96 160 QB
FLAG 464 176 Q
FLAG -1632 -464 0
FLAG -1632 -544 Vpc
IOPIN -1632 -544 In
FLAG 256 -416 Vpc
IOPIN 256 -416 In
FLAG -864 16 Vdd
IOPIN -864 16 In
FLAG -880 624 0
FLAG -704 192 DR
FLAG -1024 240 BL
IOPIN -1024 240 In
FLAG -720 240 BLB
IOPIN -720 240 In
FLAG -1008 576 SENSE
IOPIN -1008 576 In
FLAG -1904 128 SENSE
IOPIN -1904 128 In
FLAG -1904 208 0
FLAG -992 -288 BLB
IOPIN -992 -288 In
FLAG -944 -304 W
IOPIN -944 -304 In
FLAG -992 -384 DATAB
IOPIN -992 -384 In
FLAG -2000 -96 W
IOPIN -2000 -96 In
FLAG -2000 -16 0
FLAG -1904 400 PCB
IOPIN -1904 400 In
FLAG -1904 480 0
FLAG -672 -336 Vdd
IOPIN -672 -336 In
FLAG -672 -304 DATA
IOPIN -672 -304 In
FLAG -528 -304 DATAB
IOPIN -528 -304 In
SYMBOL cmosn 160 288 R180
SYMATTR InstName M1
SYMATTR Value2 l=180n w=360n
SYMBOL cmosn 384 192 R0
SYMATTR InstName M2
SYMATTR Value2 l=180n w=360n
SYMBOL cmosp 160 96 R180
SYMATTR InstName M3
SYMATTR Value2 l=180n w=180n
SYMBOL cmosp 384 0 R0
SYMATTR InstName M4
SYMATTR Value2 l=180n w=180n
SYMBOL cmosn 0 112 R90
SYMATTR InstName M5
SYMATTR Value2 l=180n w=270n
SYMBOL cmosn 688 128 R90
SYMATTR InstName M6
SYMATTR Value2 l=180n w=270n
SYMBOL voltage -1888 -272 R0
WINDOW 123 0 0 Left 0
WINDOW 39 0 0 Left 0
WINDOW 3 24 44 Left 2
SYMATTR Value PULSE(0 1.8 0 1e-11 1e-11 200n 400n)
SYMATTR InstName V3
SYMBOL voltage -1984 -544 R0
WINDOW 123 0 0 Left 0
WINDOW 39 0 0 Left 0
SYMATTR InstName V2
SYMATTR Value 1.8
SYMBOL cmosp 128 -240 R180
SYMATTR InstName M7
SYMATTR Value2 l=180n w=800n
SYMBOL cmosp 416 -240 M180
SYMATTR InstName M8
SYMATTR Value2 l=180n w=800n
SYMBOL cmosp 304 -336 R90
SYMATTR InstName M9
SYMATTR Value2 l=180n w=800n
SYMBOL cap 64 -240 R0
SYMATTR InstName C1
SYMATTR Value 100f
SYMBOL cap 448 -240 R0
SYMATTR InstName C2
SYMATTR Value 100f
SYMBOL cmosn -1184 -384 R0
SYMATTR InstName M13
SYMATTR Value2 l=180n w=1800n
SYMBOL voltage -640 -496 R90
WINDOW 123 0 0 Left 0
WINDOW 39 0 0 Left 0
WINDOW 3 -53 76 VLeft 2
SYMATTR Value 1.8
SYMATTR InstName V6
SYMBOL voltage -1632 -560 R0
WINDOW 123 0 0 Left 0
WINDOW 39 0 0 Left 0
SYMATTR InstName V1
SYMATTR Value 0.9
SYMBOL cmosn -720 320 R180
SYMATTR InstName M12
SYMBOL cmosn -1024 320 M180
SYMATTR InstName M15
SYMBOL cmosp -928 160 R180
SYMATTR InstName M16
SYMBOL cmosp -816 160 M180
SYMATTR InstName M17
SYMBOL current -880 352 R0
WINDOW 123 0 0 Left 0
WINDOW 39 0 0 Left 0
SYMATTR InstName I1
SYMATTR Value 100µ
SYMBOL cmosn -928 496 R0
SYMATTR InstName M10
SYMBOL voltage -1904 112 R0
WINDOW 123 0 0 Left 0
WINDOW 39 0 0 Left 0
WINDOW 3 24 44 Left 2
SYMATTR Value PULSE(0 1.8 400n 1e-11 1e-11 200n 600n)
SYMATTR InstName V5
SYMBOL cmosn -944 -384 M0
SYMATTR InstName M11
SYMATTR Value2 l=180n w=1800n
SYMBOL voltage -2000 -112 R0
WINDOW 123 0 0 Left 0
WINDOW 39 0 0 Left 0
WINDOW 3 24 44 Left 2
SYMATTR Value PULSE(0 1.8 0 1e-11 1e-11 200n 600n)
SYMATTR InstName V7
SYMBOL voltage -1904 384 R0
WINDOW 123 0 0 Left 0
WINDOW 39 0 0 Left 0
WINDOW 3 24 44 Left 2
SYMATTR Value PULSE(0 1.8 200n 1e-11 1e-11 200n 600n)
SYMATTR InstName V8
SYMBOL inverter -608 -304 R0
SYMATTR SpiceLine Wp=3600n Wn=1800n
SYMATTR InstName X1
TEXT -720 600 Left 2 !.tran 600n
TEXT 0 416 Left 2 !.include tsmc018.lib
TEXT -256 -568 Left 3 ;PRE-CHARGE (READ)
TEXT -248 -80 Left 3 ;SRAM
TEXT -1296 -568 Left 3 ;WRITE
TEXT -1288 -80 Left 3 ;SENSE
RECTANGLE Normal 752 -144 -272 -592 2
RECTANGLE Normal 752 368 -272 -112 2
RECTANGLE Normal -288 -144 -1312 -592 2
RECTANGLE Normal -464 688 -1328 -128 2
